Version 4
SHEET 1 1336 852
WIRE -96 16 -256 16
WIRE 496 16 -96 16
WIRE 800 16 496 16
WIRE -96 32 -96 16
WIRE -256 96 -256 16
WIRE 800 128 800 16
WIRE -96 144 -96 112
WIRE 240 144 -96 144
WIRE 688 144 240 144
WIRE 896 160 864 160
WIRE 912 160 896 160
WIRE 688 176 624 176
WIRE -96 192 -96 144
WIRE 496 224 496 16
WIRE 496 320 496 304
WIRE 624 320 624 176
WIRE 624 320 496 320
WIRE 672 320 624 320
WIRE 896 320 896 160
WIRE 896 320 752 320
WIRE 496 352 496 320
WIRE -256 448 -256 176
WIRE -96 448 -96 272
WIRE -96 448 -256 448
WIRE 496 448 496 432
WIRE 496 448 -96 448
WIRE 800 448 800 192
WIRE 800 448 496 448
WIRE -256 512 -256 448
FLAG -256 512 0
FLAG 912 160 Vo
IOPIN 912 160 Out
FLAG 240 144 Vin
SYMBOL res -112 176 R0
SYMATTR InstName R1
SYMATTR Value 1.8k
SYMATTR SpiceLine tol=5
SYMBOL res 480 336 R0
SYMATTR InstName R2
SYMATTR Value 1.2k
SYMATTR SpiceLine tol=5
SYMBOL res 480 208 R0
SYMATTR InstName R3
SYMATTR Value 10k
SYMATTR SpiceLine tol=5
SYMBOL res -112 16 R0
SYMATTR InstName NTC
SYMATTR Value {R0*exp(B*(1/(temp+273)-1/(T0)))}
SYMBOL voltage -256 80 R0
WINDOW 123 0 0 Left 0
WINDOW 39 0 0 Left 0
SYMATTR InstName VDD
SYMATTR Value 5
SYMBOL res 768 304 R90
WINDOW 0 0 56 VBottom 2
WINDOW 3 32 56 VTop 2
SYMATTR InstName R4
SYMATTR Value 1.8k
SYMBOL AutoGenerated\\LM324 768 160 R0
SYMATTR InstName U1
TEXT -152 528 Left 2 !.tran 0 50ms 1us 1ms\n.step temp 20 45 1\n \n.param R0=10k\n.param B=3965\n.param T0=25+273
