Version 4
SHEET 1 1000 680
WIRE 64 0 -224 0
WIRE 320 0 64 0
WIRE 64 48 64 0
WIRE -224 80 -224 0
WIRE 320 128 320 0
WIRE 144 144 -48 144
WIRE 208 144 144 144
WIRE 384 160 368 160
WIRE 464 160 384 160
WIRE 480 160 464 160
WIRE -48 176 -48 144
WIRE 208 176 176 176
WIRE 64 256 64 128
WIRE 64 352 64 336
WIRE 176 352 176 176
WIRE 176 352 64 352
WIRE 352 352 176 352
WIRE 464 352 464 160
WIRE 464 352 432 352
WIRE 64 368 64 352
WIRE -224 464 -224 160
WIRE -48 464 -48 256
WIRE -48 464 -224 464
WIRE 64 464 64 448
WIRE 64 464 -48 464
WIRE 320 464 320 192
WIRE 320 464 64 464
WIRE -224 480 -224 464
FLAG -224 480 0
FLAG 480 160 Vo
IOPIN 480 160 Out
FLAG 144 144 Vin
SYMBOL res 48 352 R0
SYMATTR InstName R2
SYMATTR Value 100
SYMATTR SpiceLine tol=5
SYMBOL res 48 240 R0
SYMATTR InstName R3
SYMATTR Value 1k
SYMBOL voltage -224 64 R0
WINDOW 123 0 0 Left 0
WINDOW 39 0 0 Left 0
SYMATTR InstName V1
SYMATTR Value 5
SYMBOL res 448 336 R90
WINDOW 0 0 56 VBottom 2
WINDOW 3 32 56 VTop 2
SYMATTR InstName R4
SYMATTR Value 1.2k
SYMATTR SpiceLine tol=5
SYMBOL voltage -48 160 R0
WINDOW 123 0 0 Left 0
WINDOW 39 0 0 Left 0
SYMATTR InstName LM324
SYMATTR Value {volt}
SYMBOL res 48 32 R0
SYMATTR InstName R1_3
SYMATTR Value 1k
SYMBOL AutoGenerated\\LM324 288 160 R0
SYMATTR InstName U1
TEXT -88 552 Left 2 !.step param volt 200m 450m 10m
TEXT -88 520 Left 2 !.tran 0 50ms 1us 1ms
TEXT -88 584 Left 2 !;.dc V2 0 5 0.1
TEXT -88 632 Left 2 ;R3 e soma de duas resistencias, 1k +1k
